O=C(OO)c1ccccn1
     RDKit          3D

 15 15  0  0  0  0  0  0  0  0999 V2000
    2.2452   -1.3789    0.5253 O   0  0  0  0  0  0  0  0  0  0  0  0
    1.7249   -0.4340   -0.0544 C   0  0  0  0  0  0  0  0  0  0  0  0
    2.3980    0.4474   -0.8514 O   0  0  0  0  0  0  0  0  0  0  0  0
    3.7535   -0.0892   -1.0671 O   0  0  0  0  0  0  0  0  0  0  0  0
    0.2848   -0.0659    0.0481 C   0  0  0  0  0  0  0  0  0  0  0  0
   -0.5620   -0.8850    0.7892 C   0  0  0  0  0  0  0  0  0  0  0  0
   -1.9062   -0.5353    0.8835 C   0  0  0  0  0  0  0  0  0  0  0  0
   -2.3582    0.6123    0.2405 C   0  0  0  0  0  0  0  0  0  0  0  0
   -1.4450    1.3704   -0.4748 C   0  0  0  0  0  0  0  0  0  0  0  0
   -0.1354    1.0608   -0.5856 N   0  0  0  0  0  0  0  0  0  0  0  0
    3.9360   -0.3566   -0.1447 H   0  0  0  0  0  0  0  0  0  0  0  0
   -0.1869   -1.7770    1.2819 H   0  0  0  0  0  0  0  0  0  0  0  0
   -2.5952   -1.1534    1.4532 H   0  0  0  0  0  0  0  0  0  0  0  0
   -3.4002    0.9099    0.2950 H   0  0  0  0  0  0  0  0  0  0  0  0
   -1.7532    2.2746   -0.9934 H   0  0  0  0  0  0  0  0  0  0  0  0
  1  2  2  0
  2  3  1  0
  3  4  1  0
  2  5  1  0
  5  6  2  0
  6  7  1  0
  7  8  2  0
  8  9  1  0
  9 10  2  0
 10  5  1  0
  4 11  1  0
  6 12  1  0
  7 13  1  0
  8 14  1  0
  9 15  1  0
M  END
>  <Compound_ID>  (1) 
O=C(OO)c1ccccn1

>  <SMILES>  (1) 
O=C(OO)c1ccccn1

>  <QSAR_Predicted_Activity>  (1) 
N/A

>  <QSAR_Probability>  (1) 
N/A

>  <AD_Status>  (1) 
N/A

>  <Rank>  (1) 
1

>  <Warning_Flags>  (1) 
OK

>  <RUN_ID>  (1) 
run_20261004_075256_045850

>  <SOURCE_MODULE>  (1) 
Holdout Test Set (Current Run)

$$$$
CNC(=O)c1cccc2ccccc12
     RDKit          3D

 25 26  0  0  0  0  0  0  0  0999 V2000
   -3.7179   -0.9849    0.3138 C   0  0  0  0  0  0  0  0  0  0  0  0
   -2.3683   -0.5797    0.0170 N   0  0  0  0  0  0  0  0  0  0  0  0
   -1.7804    0.4752    0.6824 C   0  0  0  0  0  0  0  0  0  0  0  0
   -2.3099    1.0987    1.5934 O   0  0  0  0  0  0  0  0  0  0  0  0
   -0.4542    0.8913    0.1625 C   0  0  0  0  0  0  0  0  0  0  0  0
   -0.3428    2.2372   -0.2152 C   0  0  0  0  0  0  0  0  0  0  0  0
    0.8411    2.7083   -0.7686 C   0  0  0  0  0  0  0  0  0  0  0  0
    1.9165    1.8384   -0.9412 C   0  0  0  0  0  0  0  0  0  0  0  0
    1.8347    0.4924   -0.5454 C   0  0  0  0  0  0  0  0  0  0  0  0
    2.9404   -0.3582   -0.7110 C   0  0  0  0  0  0  0  0  0  0  0  0
    2.8919   -1.6895   -0.3003 C   0  0  0  0  0  0  0  0  0  0  0  0
    1.7389   -2.1872    0.2912 C   0  0  0  0  0  0  0  0  0  0  0  0
    0.6294   -1.3563    0.4597 C   0  0  0  0  0  0  0  0  0  0  0  0
    0.6396   -0.0056    0.0317 C   0  0  0  0  0  0  0  0  0  0  0  0
   -4.4062   -0.3027   -0.1920 H   0  0  0  0  0  0  0  0  0  0  0  0
   -3.8651   -2.0016   -0.0576 H   0  0  0  0  0  0  0  0  0  0  0  0
   -3.8978   -0.9510    1.3916 H   0  0  0  0  0  0  0  0  0  0  0  0
   -1.9414   -0.9042   -0.8423 H   0  0  0  0  0  0  0  0  0  0  0  0
   -1.1861    2.9123   -0.0828 H   0  0  0  0  0  0  0  0  0  0  0  0
    0.9278    3.7500   -1.0666 H   0  0  0  0  0  0  0  0  0  0  0  0
    2.8346    2.2268   -1.3788 H   0  0  0  0  0  0  0  0  0  0  0  0
    3.8599    0.0156   -1.1575 H   0  0  0  0  0  0  0  0  0  0  0  0
    3.7594   -2.3312   -0.4307 H   0  0  0  0  0  0  0  0  0  0  0  0
    1.7016   -3.2189    0.6316 H   0  0  0  0  0  0  0  0  0  0  0  0
   -0.2456   -1.7753    0.9534 H   0  0  0  0  0  0  0  0  0  0  0  0
  1  2  1  0
  2  3  1  0
  3  4  2  0
  3  5  1  0
  5  6  2  0
  6  7  1  0
  7  8  2  0
  8  9  1  0
  9 10  2  0
 10 11  1  0
 11 12  2  0
 12 13  1  0
 13 14  2  0
 14  5  1  0
 14  9  1  0
  1 15  1  0
  1 16  1  0
  1 17  1  0
  2 18  1  0
  6 19  1  0
  7 20  1  0
  8 21  1  0
 10 22  1  0
 11 23  1  0
 12 24  1  0
 13 25  1  0
M  END
>  <Compound_ID>  (2) 
CNC(=O)c1cccc2ccccc12

>  <SMILES>  (2) 
CNC(=O)c1cccc2ccccc12

>  <QSAR_Predicted_Activity>  (2) 
N/A

>  <QSAR_Probability>  (2) 
N/A

>  <AD_Status>  (2) 
N/A

>  <Rank>  (2) 
2

>  <Warning_Flags>  (2) 
OK

>  <RUN_ID>  (2) 
run_20261004_075256_045850

>  <SOURCE_MODULE>  (2) 
Holdout Test Set (Current Run)

$$$$
O=C(O)OC(=O)c1cccc2ccccc12
     RDKit          3D

 24 25  0  0  0  0  0  0  0  0999 V2000
    4.3637    0.1791   -1.2165 O   0  0  0  0  0  0  0  0  0  0  0  0
    3.5781    0.7247   -0.4658 C   0  0  0  0  0  0  0  0  0  0  0  0
    3.9105    1.8878    0.1290 O   0  0  0  0  0  0  0  0  0  0  0  0
    2.3394    0.3838   -0.0768 O   0  0  0  0  0  0  0  0  0  0  0  0
    1.8396   -0.7605   -0.5822 C   0  0  0  0  0  0  0  0  0  0  0  0
    2.3497   -1.5754   -1.3295 O   0  0  0  0  0  0  0  0  0  0  0  0
    0.5049   -0.9683    0.0176 C   0  0  0  0  0  0  0  0  0  0  0  0
    0.3418   -2.1532    0.7505 C   0  0  0  0  0  0  0  0  0  0  0  0
   -0.8709   -2.4221    1.3722 C   0  0  0  0  0  0  0  0  0  0  0  0
   -1.9225   -1.5145    1.2564 C   0  0  0  0  0  0  0  0  0  0  0  0
   -1.7866   -0.3336    0.5065 C   0  0  0  0  0  0  0  0  0  0  0  0
   -2.8690    0.5540    0.3900 C   0  0  0  0  0  0  0  0  0  0  0  0
   -2.7644    1.7205   -0.3659 C   0  0  0  0  0  0  0  0  0  0  0  0
   -1.5763    2.0134   -1.0215 C   0  0  0  0  0  0  0  0  0  0  0  0
   -0.4890    1.1437   -0.9143 C   0  0  0  0  0  0  0  0  0  0  0  0
   -0.5599   -0.0415   -0.1408 C   0  0  0  0  0  0  0  0  0  0  0  0
    4.8153    2.0506   -0.2071 H   0  0  0  0  0  0  0  0  0  0  0  0
    1.1623   -2.8631    0.8375 H   0  0  0  0  0  0  0  0  0  0  0  0
   -1.0007   -3.3367    1.9456 H   0  0  0  0  0  0  0  0  0  0  0  0
   -2.8646   -1.7438    1.7519 H   0  0  0  0  0  0  0  0  0  0  0  0
   -3.8130    0.3390    0.8871 H   0  0  0  0  0  0  0  0  0  0  0  0
   -3.6133    2.3944   -0.4472 H   0  0  0  0  0  0  0  0  0  0  0  0
   -1.4928    2.9169   -1.6205 H   0  0  0  0  0  0  0  0  0  0  0  0
    0.4175    1.4049   -1.4560 H   0  0  0  0  0  0  0  0  0  0  0  0
  1  2  2  0
  2  3  1  0
  2  4  1  0
  4  5  1  0
  5  6  2  0
  5  7  1  0
  7  8  2  0
  8  9  1  0
  9 10  2  0
 10 11  1  0
 11 12  2  0
 12 13  1  0
 13 14  2  0
 14 15  1  0
 15 16  2  0
 16  7  1  0
 16 11  1  0
  3 17  1  0
  8 18  1  0
  9 19  1  0
 10 20  1  0
 12 21  1  0
 13 22  1  0
 14 23  1  0
 15 24  1  0
M  END
>  <Compound_ID>  (3) 
O=C(O)OC(=O)c1cccc2ccccc12

>  <SMILES>  (3) 
O=C(O)OC(=O)c1cccc2ccccc12

>  <QSAR_Predicted_Activity>  (3) 
N/A

>  <QSAR_Probability>  (3) 
N/A

>  <AD_Status>  (3) 
N/A

>  <Rank>  (3) 
3

>  <Warning_Flags>  (3) 
OK

>  <RUN_ID>  (3) 
run_20261004_075256_045850

>  <SOURCE_MODULE>  (3) 
Holdout Test Set (Current Run)

$$$$
ONCc1cccnc1
     RDKit          3D

 17 17  0  0  0  0  0  0  0  0999 V2000
    3.5014   -0.2063    0.7326 O   0  0  0  0  0  0  0  0  0  0  0  0
    2.1210   -0.6557    0.6338 N   0  0  0  0  0  0  0  0  0  0  0  0
    1.3905    0.4619    0.0302 C   0  0  0  0  0  0  0  0  0  0  0  0
   -0.0875    0.1928    0.0120 C   0  0  0  0  0  0  0  0  0  0  0  0
   -0.9563    0.7882    0.9310 C   0  0  0  0  0  0  0  0  0  0  0  0
   -2.3181    0.5038    0.8778 C   0  0  0  0  0  0  0  0  0  0  0  0
   -2.7683   -0.3737   -0.0946 C   0  0  0  0  0  0  0  0  0  0  0  0
   -1.9620   -0.9746   -0.9946 N   0  0  0  0  0  0  0  0  0  0  0  0
   -0.6426   -0.6833   -0.9163 C   0  0  0  0  0  0  0  0  0  0  0  0
    3.9829   -0.9429    0.3061 H   0  0  0  0  0  0  0  0  0  0  0  0
    1.8435   -0.7315    1.6163 H   0  0  0  0  0  0  0  0  0  0  0  0
    1.7379    0.6240   -0.9977 H   0  0  0  0  0  0  0  0  0  0  0  0
    1.5900    1.3900    0.5810 H   0  0  0  0  0  0  0  0  0  0  0  0
   -0.5796    1.4726    1.6866 H   0  0  0  0  0  0  0  0  0  0  0  0
   -3.0118    0.9551    1.5779 H   0  0  0  0  0  0  0  0  0  0  0  0
   -3.8216   -0.6258   -0.1767 H   0  0  0  0  0  0  0  0  0  0  0  0
   -0.0193   -1.1946   -1.6457 H   0  0  0  0  0  0  0  0  0  0  0  0
  1  2  1  0
  2  3  1  0
  3  4  1  0
  4  5  1  0
  5  6  2  0
  6  7  1  0
  7  8  2  0
  8  9  1  0
  9  4  2  0
  1 10  1  0
  2 11  1  0
  3 12  1  0
  3 13  1  0
  5 14  1  0
  6 15  1  0
  7 16  1  0
  9 17  1  0
M  END
>  <Compound_ID>  (4) 
ONCc1cccnc1

>  <SMILES>  (4) 
ONCc1cccnc1

>  <QSAR_Predicted_Activity>  (4) 
N/A

>  <QSAR_Probability>  (4) 
N/A

>  <AD_Status>  (4) 
N/A

>  <Rank>  (4) 
4

>  <Warning_Flags>  (4) 
OK

>  <RUN_ID>  (4) 
run_20261004_075256_045850

>  <SOURCE_MODULE>  (4) 
Holdout Test Set (Current Run)

$$$$
O=C(O)NCc1ccccn1
     RDKit          3D

 19 19  0  0  0  0  0  0  0  0999 V2000
    3.5283   -0.8332    1.4862 O   0  0  0  0  0  0  0  0  0  0  0  0
    2.9594    0.2023    1.1950 C   0  0  0  0  0  0  0  0  0  0  0  0
    3.5440    1.3942    1.3653 O   0  0  0  0  0  0  0  0  0  0  0  0
    1.7262    0.3535    0.6833 N   0  0  0  0  0  0  0  0  0  0  0  0
    0.8584   -0.7591    0.3924 C   0  0  0  0  0  0  0  0  0  0  0  0
   -0.4730   -0.3161   -0.1751 C   0  0  0  0  0  0  0  0  0  0  0  0
   -1.4301   -1.2720   -0.5097 C   0  0  0  0  0  0  0  0  0  0  0  0
   -2.6498   -0.8486   -1.0307 C   0  0  0  0  0  0  0  0  0  0  0  0
   -2.8829    0.5103   -1.2039 C   0  0  0  0  0  0  0  0  0  0  0  0
   -1.8816    1.3969   -0.8472 C   0  0  0  0  0  0  0  0  0  0  0  0
   -0.6880    1.0187   -0.3395 N   0  0  0  0  0  0  0  0  0  0  0  0
    4.4189    1.1607    1.7355 H   0  0  0  0  0  0  0  0  0  0  0  0
    1.3837    1.2870    0.4899 H   0  0  0  0  0  0  0  0  0  0  0  0
    1.3710   -1.4110   -0.3238 H   0  0  0  0  0  0  0  0  0  0  0  0
    0.7007   -1.3184    1.3214 H   0  0  0  0  0  0  0  0  0  0  0  0
   -1.2336   -2.3302   -0.3689 H   0  0  0  0  0  0  0  0  0  0  0  0
   -3.4125   -1.5741   -1.2994 H   0  0  0  0  0  0  0  0  0  0  0  0
   -3.8226    0.8705   -1.6072 H   0  0  0  0  0  0  0  0  0  0  0  0
   -2.0165    2.4685   -0.9638 H   0  0  0  0  0  0  0  0  0  0  0  0
  1  2  2  0
  2  3  1  0
  2  4  1  0
  4  5  1  0
  5  6  1  0
  6  7  2  0
  7  8  1  0
  8  9  2  0
  9 10  1  0
 10 11  2  0
 11  6  1  0
  3 12  1  0
  4 13  1  0
  5 14  1  0
  5 15  1  0
  7 16  1  0
  8 17  1  0
  9 18  1  0
 10 19  1  0
M  END
>  <Compound_ID>  (5) 
O=C(O)NCc1ccccn1

>  <SMILES>  (5) 
O=C(O)NCc1ccccn1

>  <QSAR_Predicted_Activity>  (5) 
N/A

>  <QSAR_Probability>  (5) 
N/A

>  <AD_Status>  (5) 
N/A

>  <Rank>  (5) 
5

>  <Warning_Flags>  (5) 
OK

>  <RUN_ID>  (5) 
run_20261004_075256_045850

>  <SOURCE_MODULE>  (5) 
Holdout Test Set (Current Run)

$$$$
NCCNC(=O)c1ccccn1
     RDKit          3D

 23 23  0  0  0  0  0  0  0  0999 V2000
   -3.0081    1.1052    0.8754 N   0  0  0  0  0  0  0  0  0  0  0  0
   -3.0974   -0.0148   -0.0705 C   0  0  0  0  0  0  0  0  0  0  0  0
   -2.2430   -1.2124    0.3724 C   0  0  0  0  0  0  0  0  0  0  0  0
   -0.8384   -0.8747    0.4527 N   0  0  0  0  0  0  0  0  0  0  0  0
   -0.0142   -0.9099   -0.6527 C   0  0  0  0  0  0  0  0  0  0  0  0
   -0.3292   -1.4115   -1.7266 O   0  0  0  0  0  0  0  0  0  0  0  0
    1.3220   -0.2592   -0.4509 C   0  0  0  0  0  0  0  0  0  0  0  0
    2.2487   -0.2513   -1.4862 C   0  0  0  0  0  0  0  0  0  0  0  0
    3.4754    0.3668   -1.2641 C   0  0  0  0  0  0  0  0  0  0  0  0
    3.7304    0.9511   -0.0268 C   0  0  0  0  0  0  0  0  0  0  0  0
    2.7449    0.8957    0.9477 C   0  0  0  0  0  0  0  0  0  0  0  0
    1.5440    0.3052    0.7709 N   0  0  0  0  0  0  0  0  0  0  0  0
   -3.3886    0.8203    1.7765 H   0  0  0  0  0  0  0  0  0  0  0  0
   -3.5965    1.8676    0.5419 H   0  0  0  0  0  0  0  0  0  0  0  0
   -4.1438   -0.3262   -0.1576 H   0  0  0  0  0  0  0  0  0  0  0  0
   -2.7699    0.3344   -1.0558 H   0  0  0  0  0  0  0  0  0  0  0  0
   -2.3755   -2.0396   -0.3333 H   0  0  0  0  0  0  0  0  0  0  0  0
   -2.5508   -1.5581    1.3650 H   0  0  0  0  0  0  0  0  0  0  0  0
   -0.5358   -0.2481    1.1951 H   0  0  0  0  0  0  0  0  0  0  0  0
    2.0193   -0.7143   -2.4405 H   0  0  0  0  0  0  0  0  0  0  0  0
    4.2252    0.3928   -2.0501 H   0  0  0  0  0  0  0  0  0  0  0  0
    4.6776    1.4404    0.1739 H   0  0  0  0  0  0  0  0  0  0  0  0
    2.9037    1.3404    1.9264 H   0  0  0  0  0  0  0  0  0  0  0  0
  1  2  1  0
  2  3  1  0
  3  4  1  0
  4  5  1  0
  5  6  2  0
  5  7  1  0
  7  8  2  0
  8  9  1  0
  9 10  2  0
 10 11  1  0
 11 12  2  0
 12  7  1  0
  1 13  1  0
  1 14  1  0
  2 15  1  0
  2 16  1  0
  3 17  1  0
  3 18  1  0
  4 19  1  0
  8 20  1  0
  9 21  1  0
 10 22  1  0
 11 23  1  0
M  END
>  <Compound_ID>  (6) 
NCCNC(=O)c1ccccn1

>  <SMILES>  (6) 
NCCNC(=O)c1ccccn1

>  <QSAR_Predicted_Activity>  (6) 
N/A

>  <QSAR_Probability>  (6) 
N/A

>  <AD_Status>  (6) 
N/A

>  <Rank>  (6) 
6

>  <Warning_Flags>  (6) 
OK

>  <RUN_ID>  (6) 
run_20261004_075256_045850

>  <SOURCE_MODULE>  (6) 
Holdout Test Set (Current Run)

$$$$
CCCNc1ccccn1
     RDKit          3D

 22 22  0  0  0  0  0  0  0  0999 V2000
   -3.2873    0.1602   -0.9559 C   0  0  0  0  0  0  0  0  0  0  0  0
   -2.5854   -1.0076   -0.2769 C   0  0  0  0  0  0  0  0  0  0  0  0
   -1.0621   -0.9597   -0.4193 C   0  0  0  0  0  0  0  0  0  0  0  0
   -0.5124    0.1259    0.3895 N   0  0  0  0  0  0  0  0  0  0  0  0
    0.8936    0.2034    0.3715 C   0  0  0  0  0  0  0  0  0  0  0  0
    1.4974    1.2350    1.0896 C   0  0  0  0  0  0  0  0  0  0  0  0
    2.8867    1.3360    1.1166 C   0  0  0  0  0  0  0  0  0  0  0  0
    3.6447    0.3986    0.4317 C   0  0  0  0  0  0  0  0  0  0  0  0
    2.9735   -0.6016   -0.2475 C   0  0  0  0  0  0  0  0  0  0  0  0
    1.6269   -0.7161   -0.2879 N   0  0  0  0  0  0  0  0  0  0  0  0
   -3.0201    0.2162   -2.0159 H   0  0  0  0  0  0  0  0  0  0  0  0
   -4.3729    0.0369   -0.8869 H   0  0  0  0  0  0  0  0  0  0  0  0
   -3.0305    1.1133   -0.4842 H   0  0  0  0  0  0  0  0  0  0  0  0
   -2.9489   -1.9379   -0.7294 H   0  0  0  0  0  0  0  0  0  0  0  0
   -2.8662   -1.0334    0.7827 H   0  0  0  0  0  0  0  0  0  0  0  0
   -0.7925   -0.8362   -1.4757 H   0  0  0  0  0  0  0  0  0  0  0  0
   -0.6649   -1.9219   -0.0719 H   0  0  0  0  0  0  0  0  0  0  0  0
   -0.8807    1.0322    0.1177 H   0  0  0  0  0  0  0  0  0  0  0  0
    0.8906    1.9487    1.6367 H   0  0  0  0  0  0  0  0  0  0  0  0
    3.3671    2.1341    1.6743 H   0  0  0  0  0  0  0  0  0  0  0  0
    4.7275    0.4404    0.4320 H   0  0  0  0  0  0  0  0  0  0  0  0
    3.5160   -1.3665   -0.7953 H   0  0  0  0  0  0  0  0  0  0  0  0
  1  2  1  0
  2  3  1  0
  3  4  1  0
  4  5  1  0
  5  6  2  0
  6  7  1  0
  7  8  2  0
  8  9  1  0
  9 10  2  0
 10  5  1  0
  1 11  1  0
  1 12  1  0
  1 13  1  0
  2 14  1  0
  2 15  1  0
  3 16  1  0
  3 17  1  0
  4 18  1  0
  6 19  1  0
  7 20  1  0
  8 21  1  0
  9 22  1  0
M  END
>  <Compound_ID>  (7) 
CCCNc1ccccn1

>  <SMILES>  (7) 
CCCNc1ccccn1

>  <QSAR_Predicted_Activity>  (7) 
N/A

>  <QSAR_Probability>  (7) 
N/A

>  <AD_Status>  (7) 
N/A

>  <Rank>  (7) 
7

>  <Warning_Flags>  (7) 
OK

>  <RUN_ID>  (7) 
run_20261004_075256_045850

>  <SOURCE_MODULE>  (7) 
Holdout Test Set (Current Run)

$$$$
N#CCc1ccccn1
     RDKit          3D

 15 15  0  0  0  0  0  0  0  0999 V2000
    3.4326    1.1932    0.9148 N   0  0  0  0  0  0  0  0  0  0  0  0
    2.7467    0.3695    0.4675 C   0  0  0  0  0  0  0  0  0  0  0  0
    1.9014   -0.6662   -0.1383 C   0  0  0  0  0  0  0  0  0  0  0  0
    0.4319   -0.3429   -0.0407 C   0  0  0  0  0  0  0  0  0  0  0  0
   -0.1094    0.7470   -0.7233 C   0  0  0  0  0  0  0  0  0  0  0  0
   -1.4733    1.0031   -0.6098 C   0  0  0  0  0  0  0  0  0  0  0  0
   -2.2610    0.1695    0.1737 C   0  0  0  0  0  0  0  0  0  0  0  0
   -1.6495   -0.8938    0.8138 C   0  0  0  0  0  0  0  0  0  0  0  0
   -0.3292   -1.1688    0.7209 N   0  0  0  0  0  0  0  0  0  0  0  0
    2.1634   -0.7988   -1.1946 H   0  0  0  0  0  0  0  0  0  0  0  0
    2.0965   -1.6271    0.3527 H   0  0  0  0  0  0  0  0  0  0  0  0
    0.5136    1.3958   -1.3321 H   0  0  0  0  0  0  0  0  0  0  0  0
   -1.9171    1.8494   -1.1271 H   0  0  0  0  0  0  0  0  0  0  0  0
   -3.3252    0.3446    0.2841 H   0  0  0  0  0  0  0  0  0  0  0  0
   -2.2214   -1.5745    1.4383 H   0  0  0  0  0  0  0  0  0  0  0  0
  1  2  3  0
  2  3  1  0
  3  4  1  0
  4  5  2  0
  5  6  1  0
  6  7  2  0
  7  8  1  0
  8  9  2  0
  9  4  1  0
  3 10  1  0
  3 11  1  0
  5 12  1  0
  6 13  1  0
  7 14  1  0
  8 15  1  0
M  END
>  <Compound_ID>  (8) 
N#CCc1ccccn1

>  <SMILES>  (8) 
N#CCc1ccccn1

>  <QSAR_Predicted_Activity>  (8) 
N/A

>  <QSAR_Probability>  (8) 
N/A

>  <AD_Status>  (8) 
N/A

>  <Rank>  (8) 
8

>  <Warning_Flags>  (8) 
OK

>  <RUN_ID>  (8) 
run_20261004_075256_045850

>  <SOURCE_MODULE>  (8) 
Holdout Test Set (Current Run)

$$$$
OSc1ccccc1
     RDKit          3D

 14 14  0  0  0  0  0  0  0  0999 V2000
    3.0562    0.9886   -0.3453 O   0  0  0  0  0  0  0  0  0  0  0  0
    2.2624   -0.0293   -1.3941 S   0  0  0  0  0  0  0  0  0  0  0  0
    0.6671   -0.0668   -0.5900 C   0  0  0  0  0  0  0  0  0  0  0  0
   -0.0621   -1.2606   -0.5754 C   0  0  0  0  0  0  0  0  0  0  0  0
   -1.3142   -1.3164    0.0419 C   0  0  0  0  0  0  0  0  0  0  0  0
   -1.8468   -0.1775    0.6438 C   0  0  0  0  0  0  0  0  0  0  0  0
   -1.1305    1.0180    0.6264 C   0  0  0  0  0  0  0  0  0  0  0  0
    0.1214    1.0736    0.0095 C   0  0  0  0  0  0  0  0  0  0  0  0
    3.4873    0.4698    0.3749 H   0  0  0  0  0  0  0  0  0  0  0  0
    0.3374   -2.1564   -1.0448 H   0  0  0  0  0  0  0  0  0  0  0  0
   -1.8744   -2.2479    0.0495 H   0  0  0  0  0  0  0  0  0  0  0  0
   -2.8222   -0.2201    1.1218 H   0  0  0  0  0  0  0  0  0  0  0  0
   -1.5467    1.9095    1.0885 H   0  0  0  0  0  0  0  0  0  0  0  0
    0.6653    2.0154   -0.0065 H   0  0  0  0  0  0  0  0  0  0  0  0
  1  2  1  0
  2  3  1  0
  3  4  2  0
  4  5  1  0
  5  6  2  0
  6  7  1  0
  7  8  2  0
  8  3  1  0
  1  9  1  0
  4 10  1  0
  5 11  1  0
  6 12  1  0
  7 13  1  0
  8 14  1  0
M  END
>  <Compound_ID>  (9) 
OSc1ccccc1

>  <SMILES>  (9) 
OSc1ccccc1

>  <QSAR_Predicted_Activity>  (9) 
N/A

>  <QSAR_Probability>  (9) 
N/A

>  <AD_Status>  (9) 
N/A

>  <Rank>  (9) 
9

>  <Warning_Flags>  (9) 
OK

>  <RUN_ID>  (9) 
run_20261004_075256_045850

>  <SOURCE_MODULE>  (9) 
Holdout Test Set (Current Run)

$$$$
N#CNc1ccccc1
     RDKit          3D

 15 15  0  0  0  0  0  0  0  0999 V2000
    3.4600    0.6053    1.5382 N   0  0  0  0  0  0  0  0  0  0  0  0
    2.7915    0.4475    0.6062 C   0  0  0  0  0  0  0  0  0  0  0  0
    2.0416    0.2549   -0.4874 N   0  0  0  0  0  0  0  0  0  0  0  0
    0.6374    0.0861   -0.2341 C   0  0  0  0  0  0  0  0  0  0  0  0
   -0.0585   -0.8861   -0.9580 C   0  0  0  0  0  0  0  0  0  0  0  0
   -1.4337   -1.0494   -0.7743 C   0  0  0  0  0  0  0  0  0  0  0  0
   -2.1211   -0.2296    0.1192 C   0  0  0  0  0  0  0  0  0  0  0  0
   -1.4367    0.7595    0.8235 C   0  0  0  0  0  0  0  0  0  0  0  0
   -0.0617    0.9243    0.6412 C   0  0  0  0  0  0  0  0  0  0  0  0
    2.4118   -0.3376   -1.2348 H   0  0  0  0  0  0  0  0  0  0  0  0
    0.4565   -1.5305   -1.6644 H   0  0  0  0  0  0  0  0  0  0  0  0
   -1.9696   -1.8140   -1.3312 H   0  0  0  0  0  0  0  0  0  0  0  0
   -3.1917   -0.3558    0.2611 H   0  0  0  0  0  0  0  0  0  0  0  0
   -1.9736    1.4085    1.5110 H   0  0  0  0  0  0  0  0  0  0  0  0
    0.4474    1.7168    1.1839 H   0  0  0  0  0  0  0  0  0  0  0  0
  1  2  3  0
  2  3  1  0
  3  4  1  0
  4  5  2  0
  5  6  1  0
  6  7  2  0
  7  8  1  0
  8  9  2  0
  9  4  1  0
  3 10  1  0
  5 11  1  0
  6 12  1  0
  7 13  1  0
  8 14  1  0
  9 15  1  0
M  END
>  <Compound_ID>  (10) 
N#CNc1ccccc1

>  <SMILES>  (10) 
N#CNc1ccccc1

>  <QSAR_Predicted_Activity>  (10) 
N/A

>  <QSAR_Probability>  (10) 
N/A

>  <AD_Status>  (10) 
N/A

>  <Rank>  (10) 
10

>  <Warning_Flags>  (10) 
OK

>  <RUN_ID>  (10) 
run_20261004_075256_045850

>  <SOURCE_MODULE>  (10) 
Holdout Test Set (Current Run)

$$$$
CCCCCc1ccccc1
     RDKit          3D

 27 27  0  0  0  0  0  0  0  0999 V2000
   -3.5441   -1.4334    0.5567 C   0  0  0  0  0  0  0  0  0  0  0  0
   -2.8579   -0.0823    0.6790 C   0  0  0  0  0  0  0  0  0  0  0  0
   -1.5791   -0.0258   -0.1575 C   0  0  0  0  0  0  0  0  0  0  0  0
   -0.8914    1.3368   -0.0278 C   0  0  0  0  0  0  0  0  0  0  0  0
    0.3490    1.4699   -0.9184 C   0  0  0  0  0  0  0  0  0  0  0  0
    1.4937    0.5769   -0.5070 C   0  0  0  0  0  0  0  0  0  0  0  0
    1.8298   -0.5484   -1.2714 C   0  0  0  0  0  0  0  0  0  0  0  0
    2.8850   -1.3769   -0.8858 C   0  0  0  0  0  0  0  0  0  0  0  0
    3.6143   -1.0887    0.2661 C   0  0  0  0  0  0  0  0  0  0  0  0
    3.2894    0.0280    1.0335 C   0  0  0  0  0  0  0  0  0  0  0  0
    2.2344    0.8573    0.6494 C   0  0  0  0  0  0  0  0  0  0  0  0
   -4.4557   -1.4518    1.1620 H   0  0  0  0  0  0  0  0  0  0  0  0
   -2.8893   -2.2390    0.9041 H   0  0  0  0  0  0  0  0  0  0  0  0
   -3.8217   -1.6398   -0.4820 H   0  0  0  0  0  0  0  0  0  0  0  0
   -3.5505    0.7031    0.3549 H   0  0  0  0  0  0  0  0  0  0  0  0
   -2.6220    0.1072    1.7327 H   0  0  0  0  0  0  0  0  0  0  0  0
   -0.9005   -0.8220    0.1696 H   0  0  0  0  0  0  0  0  0  0  0  0
   -1.8208   -0.2169   -1.2101 H   0  0  0  0  0  0  0  0  0  0  0  0
   -1.6025    2.1215   -0.3149 H   0  0  0  0  0  0  0  0  0  0  0  0
   -0.6285    1.5183    1.0215 H   0  0  0  0  0  0  0  0  0  0  0  0
    0.0763    1.2775   -1.9637 H   0  0  0  0  0  0  0  0  0  0  0  0
    0.7003    2.5095   -0.8904 H   0  0  0  0  0  0  0  0  0  0  0  0
    1.2687   -0.7893   -2.1713 H   0  0  0  0  0  0  0  0  0  0  0  0
    3.1372   -2.2480   -1.4846 H   0  0  0  0  0  0  0  0  0  0  0  0
    4.4355   -1.7342    0.5656 H   0  0  0  0  0  0  0  0  0  0  0  0
    3.8575    0.2540    1.9319 H   0  0  0  0  0  0  0  0  0  0  0  0
    1.9929    1.7258    1.2579 H   0  0  0  0  0  0  0  0  0  0  0  0
  1  2  1  0
  2  3  1  0
  3  4  1  0
  4  5  1  0
  5  6  1  0
  6  7  2  0
  7  8  1  0
  8  9  2  0
  9 10  1  0
 10 11  2  0
 11  6  1  0
  1 12  1  0
  1 13  1  0
  1 14  1  0
  2 15  1  0
  2 16  1  0
  3 17  1  0
  3 18  1  0
  4 19  1  0
  4 20  1  0
  5 21  1  0
  5 22  1  0
  7 23  1  0
  8 24  1  0
  9 25  1  0
 10 26  1  0
 11 27  1  0
M  END
>  <Compound_ID>  (11) 
CCCCCc1ccccc1

>  <SMILES>  (11) 
CCCCCc1ccccc1

>  <QSAR_Predicted_Activity>  (11) 
N/A

>  <QSAR_Probability>  (11) 
N/A

>  <AD_Status>  (11) 
N/A

>  <Rank>  (11) 
11

>  <Warning_Flags>  (11) 
OK

>  <RUN_ID>  (11) 
run_20261004_075256_045850

>  <SOURCE_MODULE>  (11) 
Holdout Test Set (Current Run)

$$$$
CNSc1cccc2ccccc12
     RDKit          3D

 24 25  0  0  0  0  0  0  0  0999 V2000
   -3.3366   -0.2663    0.7916 C   0  0  0  0  0  0  0  0  0  0  0  0
   -3.1678   -0.1189   -0.6495 N   0  0  0  0  0  0  0  0  0  0  0  0
   -1.9153   -0.8849   -1.4284 S   0  0  0  0  0  0  0  0  0  0  0  0
   -0.5195    0.1596   -0.9623 C   0  0  0  0  0  0  0  0  0  0  0  0
   -0.5867    1.5195   -1.3068 C   0  0  0  0  0  0  0  0  0  0  0  0
    0.4568    2.3832   -0.9935 C   0  0  0  0  0  0  0  0  0  0  0  0
    1.5825    1.8956   -0.3359 C   0  0  0  0  0  0  0  0  0  0  0  0
    1.6836    0.5411    0.0169 C   0  0  0  0  0  0  0  0  0  0  0  0
    2.8325    0.0751    0.6783 C   0  0  0  0  0  0  0  0  0  0  0  0
    2.9613   -1.2645    1.0402 C   0  0  0  0  0  0  0  0  0  0  0  0
    1.9412   -2.1578    0.7453 C   0  0  0  0  0  0  0  0  0  0  0  0
    0.7923   -1.7102    0.0883 C   0  0  0  0  0  0  0  0  0  0  0  0
    0.6284   -0.3554   -0.2944 C   0  0  0  0  0  0  0  0  0  0  0  0
   -3.5254   -1.3096    1.0653 H   0  0  0  0  0  0  0  0  0  0  0  0
   -4.1927    0.3305    1.1217 H   0  0  0  0  0  0  0  0  0  0  0  0
   -2.4582    0.0906    1.3392 H   0  0  0  0  0  0  0  0  0  0  0  0
   -4.0482   -0.3653   -1.1018 H   0  0  0  0  0  0  0  0  0  0  0  0
   -1.4614    1.9110   -1.8213 H   0  0  0  0  0  0  0  0  0  0  0  0
    0.3930    3.4341   -1.2619 H   0  0  0  0  0  0  0  0  0  0  0  0
    2.3887    2.5873   -0.0998 H   0  0  0  0  0  0  0  0  0  0  0  0
    3.6440    0.7592    0.9182 H   0  0  0  0  0  0  0  0  0  0  0  0
    3.8573   -1.6073    1.5506 H   0  0  0  0  0  0  0  0  0  0  0  0
    2.0337   -3.2043    1.0234 H   0  0  0  0  0  0  0  0  0  0  0  0
    0.0164   -2.4423   -0.1233 H   0  0  0  0  0  0  0  0  0  0  0  0
  1  2  1  0
  2  3  1  0
  3  4  1  0
  4  5  2  0
  5  6  1  0
  6  7  2  0
  7  8  1  0
  8  9  2  0
  9 10  1  0
 10 11  2  0
 11 12  1  0
 12 13  2  0
 13  4  1  0
 13  8  1  0
  1 14  1  0
  1 15  1  0
  1 16  1  0
  2 17  1  0
  5 18  1  0
  6 19  1  0
  7 20  1  0
  9 21  1  0
 10 22  1  0
 11 23  1  0
 12 24  1  0
M  END
>  <Compound_ID>  (12) 
CNSc1cccc2ccccc12

>  <SMILES>  (12) 
CNSc1cccc2ccccc12

>  <QSAR_Predicted_Activity>  (12) 
N/A

>  <QSAR_Probability>  (12) 
N/A

>  <AD_Status>  (12) 
N/A

>  <Rank>  (12) 
12

>  <Warning_Flags>  (12) 
OK

>  <RUN_ID>  (12) 
run_20261004_075256_045850

>  <SOURCE_MODULE>  (12) 
Holdout Test Set (Current Run)

$$$$
O=C(O)NC(=O)c1cccc2ccccc12
     RDKit          3D

 25 26  0  0  0  0  0  0  0  0999 V2000
    4.3666   -0.7160   -1.1708 O   0  0  0  0  0  0  0  0  0  0  0  0
    3.6203   -0.7087   -0.2126 C   0  0  0  0  0  0  0  0  0  0  0  0
    3.9882   -1.3311    0.9225 O   0  0  0  0  0  0  0  0  0  0  0  0
    2.3922   -0.1612   -0.0409 N   0  0  0  0  0  0  0  0  0  0  0  0
    1.6770    0.5132   -1.0052 C   0  0  0  0  0  0  0  0  0  0  0  0
    2.0798    0.8656   -2.1045 O   0  0  0  0  0  0  0  0  0  0  0  0
    0.3160    0.9131   -0.5732 C   0  0  0  0  0  0  0  0  0  0  0  0
    0.0545    2.2902   -0.5623 C   0  0  0  0  0  0  0  0  0  0  0  0
   -1.1705    2.7583   -0.1044 C   0  0  0  0  0  0  0  0  0  0  0  0
   -2.1340    1.8535    0.3392 C   0  0  0  0  0  0  0  0  0  0  0  0
   -1.8997    0.4679    0.3115 C   0  0  0  0  0  0  0  0  0  0  0  0
   -2.8938   -0.4241    0.7458 C   0  0  0  0  0  0  0  0  0  0  0  0
   -2.6923   -1.8028    0.7012 C   0  0  0  0  0  0  0  0  0  0  0  0
   -1.4965   -2.3101    0.2110 C   0  0  0  0  0  0  0  0  0  0  0  0
   -0.4957   -1.4379   -0.2216 C   0  0  0  0  0  0  0  0  0  0  0  0
   -0.6622   -0.0318   -0.1649 C   0  0  0  0  0  0  0  0  0  0  0  0
    4.8772   -1.6771    0.6913 H   0  0  0  0  0  0  0  0  0  0  0  0
    1.9794   -0.3323    0.8628 H   0  0  0  0  0  0  0  0  0  0  0  0
    0.8103    2.9943   -0.9058 H   0  0  0  0  0  0  0  0  0  0  0  0
   -1.3769    3.8257   -0.0909 H   0  0  0  0  0  0  0  0  0  0  0  0
   -3.0865    2.2417    0.6968 H   0  0  0  0  0  0  0  0  0  0  0  0
   -3.8456   -0.0489    1.1175 H   0  0  0  0  0  0  0  0  0  0  0  0
   -3.4759   -2.4782    1.0351 H   0  0  0  0  0  0  0  0  0  0  0  0
   -1.3438   -3.3852    0.1532 H   0  0  0  0  0  0  0  0  0  0  0  0
    0.4118   -1.8781   -0.6306 H   0  0  0  0  0  0  0  0  0  0  0  0
  1  2  2  0
  2  3  1  0
  2  4  1  0
  4  5  1  0
  5  6  2  0
  5  7  1  0
  7  8  2  0
  8  9  1  0
  9 10  2  0
 10 11  1  0
 11 12  2  0
 12 13  1  0
 13 14  2  0
 14 15  1  0
 15 16  2  0
 16  7  1  0
 16 11  1  0
  3 17  1  0
  4 18  1  0
  8 19  1  0
  9 20  1  0
 10 21  1  0
 12 22  1  0
 13 23  1  0
 14 24  1  0
 15 25  1  0
M  END
>  <Compound_ID>  (13) 
O=C(O)NC(=O)c1cccc2ccccc12

>  <SMILES>  (13) 
O=C(O)NC(=O)c1cccc2ccccc12

>  <QSAR_Predicted_Activity>  (13) 
N/A

>  <QSAR_Probability>  (13) 
N/A

>  <AD_Status>  (13) 
N/A

>  <Rank>  (13) 
13

>  <Warning_Flags>  (13) 
OK

>  <RUN_ID>  (13) 
run_20261004_075256_045850

>  <SOURCE_MODULE>  (13) 
Holdout Test Set (Current Run)

$$$$
Fc1ccccn1
     RDKit          3D

 11 11  0  0  0  0  0  0  0  0999 V2000
    2.4263   -1.3347   -0.0582 F   0  0  0  0  0  0  0  0  0  0  0  0
    1.2087   -0.7741   -0.0312 C   0  0  0  0  0  0  0  0  0  0  0  0
    1.1206    0.6076   -0.0023 C   0  0  0  0  0  0  0  0  0  0  0  0
   -0.1438    1.1865    0.0257 C   0  0  0  0  0  0  0  0  0  0  0  0
   -1.2649    0.3629    0.0236 C   0  0  0  0  0  0  0  0  0  0  0  0
   -1.0724   -1.0104   -0.0064 C   0  0  0  0  0  0  0  0  0  0  0  0
    0.1417   -1.5997   -0.0339 N   0  0  0  0  0  0  0  0  0  0  0  0
    2.0213    1.2086   -0.0019 H   0  0  0  0  0  0  0  0  0  0  0  0
   -0.2538    2.2669    0.0488 H   0  0  0  0  0  0  0  0  0  0  0  0
   -2.2660    0.7798    0.0450 H   0  0  0  0  0  0  0  0  0  0  0  0
   -1.9177   -1.6933   -0.0092 H   0  0  0  0  0  0  0  0  0  0  0  0
  1  2  1  0
  2  3  2  0
  3  4  1  0
  4  5  2  0
  5  6  1  0
  6  7  2  0
  7  2  1  0
  3  8  1  0
  4  9  1  0
  5 10  1  0
  6 11  1  0
M  END
>  <Compound_ID>  (14) 
Fc1ccccn1

>  <SMILES>  (14) 
Fc1ccccn1

>  <QSAR_Predicted_Activity>  (14) 
N/A

>  <QSAR_Probability>  (14) 
N/A

>  <AD_Status>  (14) 
N/A

>  <Rank>  (14) 
14

>  <Warning_Flags>  (14) 
OK

>  <RUN_ID>  (14) 
run_20261004_075256_045850

>  <SOURCE_MODULE>  (14) 
Holdout Test Set (Current Run)

$$$$
NCOCCc1ccccn1
     RDKit          3D

 23 23  0  0  0  0  0  0  0  0999 V2000
   -4.5841   -0.3531    0.8480 N   0  0  0  0  0  0  0  0  0  0  0  0
   -3.3124   -0.8969    0.4327 C   0  0  0  0  0  0  0  0  0  0  0  0
   -2.3706    0.1577    0.4116 O   0  0  0  0  0  0  0  0  0  0  0  0
   -1.0604   -0.3185    0.0875 C   0  0  0  0  0  0  0  0  0  0  0  0
   -0.1015    0.8682    0.0873 C   0  0  0  0  0  0  0  0  0  0  0  0
    1.3321    0.5002   -0.2014 C   0  0  0  0  0  0  0  0  0  0  0  0
    2.3338    1.4476    0.0040 C   0  0  0  0  0  0  0  0  0  0  0  0
    3.6534    1.1101   -0.2839 C   0  0  0  0  0  0  0  0  0  0  0  0
    3.9400   -0.1574   -0.7732 C   0  0  0  0  0  0  0  0  0  0  0  0
    2.8882   -1.0376   -0.9570 C   0  0  0  0  0  0  0  0  0  0  0  0
    1.5983   -0.7372   -0.6866 N   0  0  0  0  0  0  0  0  0  0  0  0
   -4.7164    0.5149    0.3341 H   0  0  0  0  0  0  0  0  0  0  0  0
   -5.3285   -0.9841    0.5666 H   0  0  0  0  0  0  0  0  0  0  0  0
   -3.4005   -1.3257   -0.5715 H   0  0  0  0  0  0  0  0  0  0  0  0
   -3.0009   -1.6789    1.1329 H   0  0  0  0  0  0  0  0  0  0  0  0
   -1.0851   -0.7955   -0.8998 H   0  0  0  0  0  0  0  0  0  0  0  0
   -0.7495   -1.0609    0.8326 H   0  0  0  0  0  0  0  0  0  0  0  0
   -0.1579    1.3651    1.0645 H   0  0  0  0  0  0  0  0  0  0  0  0
   -0.4364    1.6053   -0.6531 H   0  0  0  0  0  0  0  0  0  0  0  0
    2.0933    2.4360    0.3832 H   0  0  0  0  0  0  0  0  0  0  0  0
    4.4498    1.8321   -0.1283 H   0  0  0  0  0  0  0  0  0  0  0  0
    4.9564   -0.4518   -1.0075 H   0  0  0  0  0  0  0  0  0  0  0  0
    3.0589   -2.0397   -1.3396 H   0  0  0  0  0  0  0  0  0  0  0  0
  1  2  1  0
  2  3  1  0
  3  4  1  0
  4  5  1  0
  5  6  1  0
  6  7  2  0
  7  8  1  0
  8  9  2  0
  9 10  1  0
 10 11  2  0
 11  6  1  0
  1 12  1  0
  1 13  1  0
  2 14  1  0
  2 15  1  0
  4 16  1  0
  4 17  1  0
  5 18  1  0
  5 19  1  0
  7 20  1  0
  8 21  1  0
  9 22  1  0
 10 23  1  0
M  END
>  <Compound_ID>  (15) 
NCOCCc1ccccn1

>  <SMILES>  (15) 
NCOCCc1ccccn1

>  <QSAR_Predicted_Activity>  (15) 
N/A

>  <QSAR_Probability>  (15) 
N/A

>  <AD_Status>  (15) 
N/A

>  <Rank>  (15) 
15

>  <Warning_Flags>  (15) 
OK

>  <RUN_ID>  (15) 
run_20261004_075256_045850

>  <SOURCE_MODULE>  (15) 
Holdout Test Set (Current Run)

$$$$
CCOCCc1ccccn1
     RDKit          3D

 24 24  0  0  0  0  0  0  0  0999 V2000
    3.7647    0.6022    0.5593 C   0  0  0  0  0  0  0  0  0  0  0  0
    2.3804    0.4009    1.1491 C   0  0  0  0  0  0  0  0  0  0  0  0
    1.3539    0.7790    0.2338 O   0  0  0  0  0  0  0  0  0  0  0  0
    1.1298   -0.1884   -0.7981 C   0  0  0  0  0  0  0  0  0  0  0  0
   -0.0922    0.2172   -1.6177 C   0  0  0  0  0  0  0  0  0  0  0  0
   -1.3781   -0.1235   -0.9077 C   0  0  0  0  0  0  0  0  0  0  0  0
   -1.8859    0.7141    0.0827 C   0  0  0  0  0  0  0  0  0  0  0  0
   -3.0696    0.3591    0.7228 C   0  0  0  0  0  0  0  0  0  0  0  0
   -3.7119   -0.8182    0.3611 C   0  0  0  0  0  0  0  0  0  0  0  0
   -3.1380   -1.5971   -0.6291 C   0  0  0  0  0  0  0  0  0  0  0  0
   -1.9895   -1.2799   -1.2667 N   0  0  0  0  0  0  0  0  0  0  0  0
    4.5345    0.4330    1.3179 H   0  0  0  0  0  0  0  0  0  0  0  0
    3.9478   -0.0875   -0.2700 H   0  0  0  0  0  0  0  0  0  0  0  0
    3.8726    1.6177    0.1647 H   0  0  0  0  0  0  0  0  0  0  0  0
    2.2359   -0.6318    1.4856 H   0  0  0  0  0  0  0  0  0  0  0  0
    2.2736    1.0465    2.0271 H   0  0  0  0  0  0  0  0  0  0  0  0
    1.0004   -1.1864   -0.3625 H   0  0  0  0  0  0  0  0  0  0  0  0
    2.0036   -0.2006   -1.4576 H   0  0  0  0  0  0  0  0  0  0  0  0
   -0.0748    1.2900   -1.8438 H   0  0  0  0  0  0  0  0  0  0  0  0
   -0.0757   -0.3175   -2.5751 H   0  0  0  0  0  0  0  0  0  0  0  0
   -1.3626    1.6250    0.3576 H   0  0  0  0  0  0  0  0  0  0  0  0
   -3.4835    0.9962    1.4987 H   0  0  0  0  0  0  0  0  0  0  0  0
   -4.6352   -1.1228    0.8399 H   0  0  0  0  0  0  0  0  0  0  0  0
   -3.6002   -2.5272   -0.9465 H   0  0  0  0  0  0  0  0  0  0  0  0
  1  2  1  0
  2  3  1  0
  3  4  1  0
  4  5  1  0
  5  6  1  0
  6  7  2  0
  7  8  1  0
  8  9  2  0
  9 10  1  0
 10 11  2  0
 11  6  1  0
  1 12  1  0
  1 13  1  0
  1 14  1  0
  2 15  1  0
  2 16  1  0
  4 17  1  0
  4 18  1  0
  5 19  1  0
  5 20  1  0
  7 21  1  0
  8 22  1  0
  9 23  1  0
 10 24  1  0
M  END
>  <Compound_ID>  (16) 
CCOCCc1ccccn1

>  <SMILES>  (16) 
CCOCCc1ccccn1

>  <QSAR_Predicted_Activity>  (16) 
N/A

>  <QSAR_Probability>  (16) 
N/A

>  <AD_Status>  (16) 
N/A

>  <Rank>  (16) 
16

>  <Warning_Flags>  (16) 
OK

>  <RUN_ID>  (16) 
run_20261004_075256_045850

>  <SOURCE_MODULE>  (16) 
Holdout Test Set (Current Run)

$$$$
O=C(O)Nc1cccc2ccccc12
     RDKit          3D

 23 24  0  0  0  0  0  0  0  0999 V2000
   -3.9318    0.1959    0.6402 O   0  0  0  0  0  0  0  0  0  0  0  0
   -3.1708    1.0284    0.1868 C   0  0  0  0  0  0  0  0  0  0  0  0
   -3.6477    2.2310   -0.1818 O   0  0  0  0  0  0  0  0  0  0  0  0
   -1.8362    0.9984   -0.0443 N   0  0  0  0  0  0  0  0  0  0  0  0
   -0.9174   -0.0511    0.1861 C   0  0  0  0  0  0  0  0  0  0  0  0
   -1.3445   -1.2720    0.7258 C   0  0  0  0  0  0  0  0  0  0  0  0
   -0.4430   -2.3078    0.9542 C   0  0  0  0  0  0  0  0  0  0  0  0
    0.9014   -2.1391    0.6460 C   0  0  0  0  0  0  0  0  0  0  0  0
    1.3675   -0.9343    0.1053 C   0  0  0  0  0  0  0  0  0  0  0  0
    2.7334   -0.7975   -0.1948 C   0  0  0  0  0  0  0  0  0  0  0  0
    3.2375    0.3832   -0.7333 C   0  0  0  0  0  0  0  0  0  0  0  0
    2.3798    1.4442   -0.9792 C   0  0  0  0  0  0  0  0  0  0  0  0
    1.0177    1.3237   -0.6861 C   0  0  0  0  0  0  0  0  0  0  0  0
    0.4652    0.1364   -0.1362 C   0  0  0  0  0  0  0  0  0  0  0  0
   -4.6029    2.1498    0.0225 H   0  0  0  0  0  0  0  0  0  0  0  0
   -1.4993    1.8637   -0.4331 H   0  0  0  0  0  0  0  0  0  0  0  0
   -2.3838   -1.4516    0.9827 H   0  0  0  0  0  0  0  0  0  0  0  0
   -0.7932   -3.2475    1.3736 H   0  0  0  0  0  0  0  0  0  0  0  0
    1.5866   -2.9633    0.8336 H   0  0  0  0  0  0  0  0  0  0  0  0
    3.4223   -1.6193   -0.0088 H   0  0  0  0  0  0  0  0  0  0  0  0
    4.2968    0.4711   -0.9591 H   0  0  0  0  0  0  0  0  0  0  0  0
    2.7652    2.3697   -1.3996 H   0  0  0  0  0  0  0  0  0  0  0  0
    0.3972    2.1880   -0.9005 H   0  0  0  0  0  0  0  0  0  0  0  0
  1  2  2  0
  2  3  1  0
  2  4  1  0
  4  5  1  0
  5  6  2  0
  6  7  1  0
  7  8  2  0
  8  9  1  0
  9 10  2  0
 10 11  1  0
 11 12  2  0
 12 13  1  0
 13 14  2  0
 14  5  1  0
 14  9  1  0
  3 15  1  0
  4 16  1  0
  6 17  1  0
  7 18  1  0
  8 19  1  0
 10 20  1  0
 11 21  1  0
 12 22  1  0
 13 23  1  0
M  END
>  <Compound_ID>  (17) 
O=C(O)Nc1cccc2ccccc12

>  <SMILES>  (17) 
O=C(O)Nc1cccc2ccccc12

>  <QSAR_Predicted_Activity>  (17) 
N/A

>  <QSAR_Probability>  (17) 
N/A

>  <AD_Status>  (17) 
N/A

>  <Rank>  (17) 
17

>  <Warning_Flags>  (17) 
OK

>  <RUN_ID>  (17) 
run_20261004_075256_045850

>  <SOURCE_MODULE>  (17) 
Holdout Test Set (Current Run)

$$$$
O=C(O)Nc1ccccc1
     RDKit          3D

 17 17  0  0  0  0  0  0  0  0999 V2000
    1.6760    2.4308    0.5484 O   0  0  0  0  0  0  0  0  0  0  0  0
    2.1317    1.4177    0.0539 C   0  0  0  0  0  0  0  0  0  0  0  0
    3.4365    1.3628   -0.2677 O   0  0  0  0  0  0  0  0  0  0  0  0
    1.5478    0.2372   -0.2654 N   0  0  0  0  0  0  0  0  0  0  0  0
    0.2055   -0.1397   -0.1010 C   0  0  0  0  0  0  0  0  0  0  0  0
   -0.7704    0.6964    0.4452 C   0  0  0  0  0  0  0  0  0  0  0  0
   -2.0893    0.2504    0.5776 C   0  0  0  0  0  0  0  0  0  0  0  0
   -2.4412   -1.0329    0.1653 C   0  0  0  0  0  0  0  0  0  0  0  0
   -1.4745   -1.8732   -0.3805 C   0  0  0  0  0  0  0  0  0  0  0  0
   -0.1567   -1.4282   -0.5130 C   0  0  0  0  0  0  0  0  0  0  0  0
    3.7561    2.2498   -0.0004 H   0  0  0  0  0  0  0  0  0  0  0  0
    2.1880   -0.4312   -0.6698 H   0  0  0  0  0  0  0  0  0  0  0  0
   -0.5368    1.7030    0.7784 H   0  0  0  0  0  0  0  0  0  0  0  0
   -2.8405    0.9103    1.0043 H   0  0  0  0  0  0  0  0  0  0  0  0
   -3.4672   -1.3759    0.2698 H   0  0  0  0  0  0  0  0  0  0  0  0
   -1.7450   -2.8751   -0.7034 H   0  0  0  0  0  0  0  0  0  0  0  0
    0.5801   -2.1022   -0.9418 H   0  0  0  0  0  0  0  0  0  0  0  0
  1  2  2  0
  2  3  1  0
  2  4  1  0
  4  5  1  0
  5  6  2  0
  6  7  1  0
  7  8  2  0
  8  9  1  0
  9 10  2  0
 10  5  1  0
  3 11  1  0
  4 12  1  0
  6 13  1  0
  7 14  1  0
  8 15  1  0
  9 16  1  0
 10 17  1  0
M  END
>  <Compound_ID>  (18) 
O=C(O)Nc1ccccc1

>  <SMILES>  (18) 
O=C(O)Nc1ccccc1

>  <QSAR_Predicted_Activity>  (18) 
N/A

>  <QSAR_Probability>  (18) 
N/A

>  <AD_Status>  (18) 
N/A

>  <Rank>  (18) 
18

>  <Warning_Flags>  (18) 
OK

>  <RUN_ID>  (18) 
run_20261004_075256_045850

>  <SOURCE_MODULE>  (18) 
Holdout Test Set (Current Run)

$$$$
NCOc1ccccn1
     RDKit          3D

 17 17  0  0  0  0  0  0  0  0999 V2000
    3.4867   -0.1823    0.3569 N   0  0  0  0  0  0  0  0  0  0  0  0
    2.0949   -0.5946    0.2126 C   0  0  0  0  0  0  0  0  0  0  0  0
    1.2691    0.5420    0.4103 O   0  0  0  0  0  0  0  0  0  0  0  0
   -0.0764    0.2549    0.2937 C   0  0  0  0  0  0  0  0  0  0  0  0
   -0.9473    1.3185    0.4745 C   0  0  0  0  0  0  0  0  0  0  0  0
   -2.3138    1.0799    0.3669 C   0  0  0  0  0  0  0  0  0  0  0  0
   -2.7578   -0.2069    0.0839 C   0  0  0  0  0  0  0  0  0  0  0  0
   -1.8109   -1.2055   -0.0803 C   0  0  0  0  0  0  0  0  0  0  0  0
   -0.4786   -1.0040    0.0182 N   0  0  0  0  0  0  0  0  0  0  0  0
    3.5701    0.2500    1.2750 H   0  0  0  0  0  0  0  0  0  0  0  0
    3.6380    0.5746   -0.3072 H   0  0  0  0  0  0  0  0  0  0  0  0
    1.8838   -1.3667    0.9618 H   0  0  0  0  0  0  0  0  0  0  0  0
    1.9592   -1.0065   -0.7943 H   0  0  0  0  0  0  0  0  0  0  0  0
   -0.5681    2.3099    0.6942 H   0  0  0  0  0  0  0  0  0  0  0  0
   -3.0242    1.8902    0.5027 H   0  0  0  0  0  0  0  0  0  0  0  0
   -3.8156   -0.4272   -0.0067 H   0  0  0  0  0  0  0  0  0  0  0  0
   -2.1090   -2.2263   -0.3025 H   0  0  0  0  0  0  0  0  0  0  0  0
  1  2  1  0
  2  3  1  0
  3  4  1  0
  4  5  2  0
  5  6  1  0
  6  7  2  0
  7  8  1  0
  8  9  2  0
  9  4  1  0
  1 10  1  0
  1 11  1  0
  2 12  1  0
  2 13  1  0
  5 14  1  0
  6 15  1  0
  7 16  1  0
  8 17  1  0
M  END
>  <Compound_ID>  (19) 
NCOc1ccccn1

>  <SMILES>  (19) 
NCOc1ccccn1

>  <QSAR_Predicted_Activity>  (19) 
N/A

>  <QSAR_Probability>  (19) 
N/A

>  <AD_Status>  (19) 
N/A

>  <Rank>  (19) 
19

>  <Warning_Flags>  (19) 
OK

>  <RUN_ID>  (19) 
run_20261004_075256_045850

>  <SOURCE_MODULE>  (19) 
Holdout Test Set (Current Run)

$$$$
N#CCCc1ccccc1
     RDKit          3D

 19 19  0  0  0  0  0  0  0  0999 V2000
    3.1437    1.8772    0.3144 N   0  0  0  0  0  0  0  0  0  0  0  0
    2.7219    0.8268    0.5706 C   0  0  0  0  0  0  0  0  0  0  0  0
    2.2108   -0.5145    0.8846 C   0  0  0  0  0  0  0  0  0  0  0  0
    1.2845   -1.0438   -0.2106 C   0  0  0  0  0  0  0  0  0  0  0  0
   -0.0779   -0.3924   -0.1983 C   0  0  0  0  0  0  0  0  0  0  0  0
   -1.0965   -0.8942    0.6241 C   0  0  0  0  0  0  0  0  0  0  0  0
   -2.3503   -0.2816    0.6506 C   0  0  0  0  0  0  0  0  0  0  0  0
   -2.5968    0.8389   -0.1401 C   0  0  0  0  0  0  0  0  0  0  0  0
   -1.5902    1.3478   -0.9580 C   0  0  0  0  0  0  0  0  0  0  0  0
   -0.3360    0.7363   -0.9877 C   0  0  0  0  0  0  0  0  0  0  0  0
    3.0646   -1.1960    0.9796 H   0  0  0  0  0  0  0  0  0  0  0  0
    1.7024   -0.5045    1.8556 H   0  0  0  0  0  0  0  0  0  0  0  0
    1.7422   -0.9258   -1.2016 H   0  0  0  0  0  0  0  0  0  0  0  0
    1.1503   -2.1247   -0.0728 H   0  0  0  0  0  0  0  0  0  0  0  0
   -0.9231   -1.7674    1.2489 H   0  0  0  0  0  0  0  0  0  0  0  0
   -3.1357   -0.6776    1.2891 H   0  0  0  0  0  0  0  0  0  0  0  0
   -3.5725    1.3172   -0.1180 H   0  0  0  0  0  0  0  0  0  0  0  0
   -1.7798    2.2248   -1.5718 H   0  0  0  0  0  0  0  0  0  0  0  0
    0.4383    1.1537   -1.6289 H   0  0  0  0  0  0  0  0  0  0  0  0
  1  2  3  0
  2  3  1  0
  3  4  1  0
  4  5  1  0
  5  6  2  0
  6  7  1  0
  7  8  2  0
  8  9  1  0
  9 10  2  0
 10  5  1  0
  3 11  1  0
  3 12  1  0
  4 13  1  0
  4 14  1  0
  6 15  1  0
  7 16  1  0
  8 17  1  0
  9 18  1  0
 10 19  1  0
M  END
>  <Compound_ID>  (20) 
N#CCCc1ccccc1

>  <SMILES>  (20) 
N#CCCc1ccccc1

>  <QSAR_Predicted_Activity>  (20) 
N/A

>  <QSAR_Probability>  (20) 
N/A

>  <AD_Status>  (20) 
N/A

>  <Rank>  (20) 
20

>  <Warning_Flags>  (20) 
OK

>  <RUN_ID>  (20) 
run_20261004_075256_045850

>  <SOURCE_MODULE>  (20) 
Holdout Test Set (Current Run)

$$$$
